* LED: TOPLED E1608 KW DELPS2.RA
* (c) 2025, OSRAM Opto Semiconductors GmbH. All rights reserved.

* Valid for Vf(binning) = 2.70 V and If(binning) = 10.0 mA
* VERSION: 1
.MODEL KW_DELPS2.RA_x25y27_typ D
+ IS=7.873130419348787e-27
+ N=1.761715754200661
+ RS=17.32064696723893
+ Tnom=25
+ EG=3.203773523136317
+ XTI=1.0000000000000011
+ TRS1=-0.00378606564621919
+ TRS2=4.65808568428023e-05
+ mfg=OSRAM_OS

* Valid for bin '55' with Vf(binning) = 2.95 V and If(binning) = 10.0 mA
* VERSION: 1
.MODEL KW_DELPS2.RA_x25y27_55-min D
+ IS=7.873130419349688e-27
+ N=1.761715754200666
+ RS=43.78501357383507
+ Tnom=25
+ EG=3.20377352425605
+ XTI=1.0000000000000000
+ TRS1=-0.001497706845954099
+ TRS2=1.842664032967908e-05
+ mfg=OSRAM_OS

* Valid for bin '55' with Vf(binning) = 3.08 V and If(binning) = 10.0 mA
* VERSION: 1
.MODEL KW_DELPS2.RA_x25y27_55-mid D
+ IS=7.873130419352007e-27
+ N=1.761715754200675
+ RS=56.28501357383507
+ Tnom=25
+ EG=3.203773500784778
+ XTI=1.0000000000000000
+ TRS1=-0.001165090201610315
+ TRS2=1.433437855730375e-05
+ mfg=OSRAM_OS

* Valid for bin '55' with Vf(binning) = 3.20 V and If(binning) = 10.0 mA
* VERSION: 1
.MODEL KW_DELPS2.RA_x25y27_55-max D
+ IS=7.873130419357546e-27
+ N=1.761715754200697
+ RS=68.7850135738351
+ Tnom=25
+ EG=3.203773529167437
+ XTI=1.0000000000000000
+ TRS1=-0.0009533631690310618
+ TRS2=1.172945283534997e-05
+ mfg=OSRAM_OS

* Valid for bin 'Z5' with Vf(binning) = 2.70 V and If(binning) = 10.0 mA
* VERSION: 1
.MODEL KW_DELPS2.RA_x25y27_Z5-min D
+ IS=7.873130419354647e-27
+ N=1.761715754200686
+ RS=18.78501357383498
+ Tnom=25
+ EG=3.203773537409925
+ XTI=1.0000000000000000
+ TRS1=-0.003490926478437261
+ TRS2=4.294969094209799e-05
+ mfg=OSRAM_OS

* Valid for bin 'Z5' with Vf(binning) = 2.83 V and If(binning) = 10.0 mA
* VERSION: 1
.MODEL KW_DELPS2.RA_x25y27_Z5-mid D
+ IS=7.873130419349173e-27
+ N=1.761715754200663
+ RS=31.28501357383533
+ Tnom=25
+ EG=3.203773507025499
+ XTI=1.0000000000000000
+ TRS1=-0.002096118914113924
+ TRS2=2.578904374119399e-05
+ mfg=OSRAM_OS

* Valid for bin 'Z5' with Vf(binning) = 2.95 V and If(binning) = 10.0 mA
* VERSION: 1
.MODEL KW_DELPS2.RA_x25y27_Z5-max D
+ IS=7.873130419349688e-27
+ N=1.761715754200666
+ RS=43.78501357383507
+ Tnom=25
+ EG=3.20377352425605
+ XTI=1.0000000000000000
+ TRS1=-0.001497706845954099
+ TRS2=1.842664032967908e-05
+ mfg=OSRAM_OS

* Valid for bin 'S4' with Vf(binning) = 2.60 V and If(binning) = 0.500 mA
* VERSION: 1
.MODEL KW_DELPS2.RA_x25y27_5.000000e-01mA_S4-max D
+ IS=1.507557721415633e-28
+ N=1.761715699404052
+ RS=88.81196804030438
+ Tnom=25
+ EG=3.382813547186978
+ XTI=1.0000000000000160
+ TRS1=-0.0007383813178404874
+ TRS2=9.084480508811984e-06
+ mfg=OSRAM_OS

* Valid for bin 'W5' with Vf(binning) = 2.60 V and If(binning) = 0.500 mA
* VERSION: 1
.MODEL KW_DELPS2.RA_x25y27_5.000000e-01mA_W5-min D
+ IS=1.507557721415633e-28
+ N=1.761715699404052
+ RS=88.81196804030438
+ Tnom=25
+ EG=3.382813547186978
+ XTI=1.0000000000000160
+ TRS1=-0.0007383813178404874
+ TRS2=9.084480508811984e-06
+ mfg=OSRAM_OS

* Valid for bin 'W5' with Vf(binning) = 2.73 V and If(binning) = 0.500 mA
* VERSION: 1
.MODEL KW_DELPS2.RA_x25y27_5.000000e-01mA_W5-mid D
+ IS=1.507557721416249e-28
+ N=1.761715699404064
+ RS=338.8119680403046
+ Tnom=25
+ EG=3.382813503142331
+ XTI=1.0000000000000000
+ TRS1=-0.0001935501618832687
+ TRS2=2.381293141993651e-06
+ mfg=OSRAM_OS

* Valid for bin 'W5' with Vf(binning) = 2.85 V and If(binning) = 0.500 mA
* VERSION: 1
.MODEL KW_DELPS2.RA_x25y27_5.000000e-01mA_W5-max D
+ IS=1.507557721414449e-28
+ N=1.761715699404026
+ RS=588.8119680403047
+ Tnom=25
+ EG=3.382813502202819
+ XTI=1.0000000000000000
+ TRS1=-0.0001113719164603928
+ TRS2=1.370234845723811e-06
+ mfg=OSRAM_OS

* Valid for bin '15' with Vf(binning) = 2.75 V and If(binning) = 2.00 mA
* VERSION: 1
.MODEL KW_DELPS2.RA_x25y27_2mA_15-min D
+ IS=1.50755772141435e-28
+ N=1.761715699404026
+ RS=65.82906796542011
+ Tnom=25
+ EG=3.382813491784648
+ XTI=1.0000000000000000
+ TRS1=-0.0009961727128403642
+ TRS2=1.225614567866236e-05
+ mfg=OSRAM_OS

* Valid for bin '15' with Vf(binning) = 2.88 V and If(binning) = 2.00 mA
* VERSION: 1
.MODEL KW_DELPS2.RA_x25y27_2mA_15-mid D
+ IS=1.507557721415485e-28
+ N=1.761715699404048
+ RS=128.3290679654204
+ Tnom=25
+ EG=3.382813511465829
+ XTI=1.0000000000000000
+ TRS1=-0.0005110074382866847
+ TRS2=6.287044555847808e-06
+ mfg=OSRAM_OS

* Valid for bin '15' with Vf(binning) = 3.00 V and If(binning) = 2.00 mA
* VERSION: 1
.MODEL KW_DELPS2.RA_x25y27_2mA_15-max D
+ IS=1.507557721415386e-28
+ N=1.761715699404045
+ RS=190.8290679654205
+ Tnom=25
+ EG=3.382813533167706
+ XTI=1.0000000000000000
+ TRS1=-0.0003436431892047729
+ TRS2=4.227923107300298e-06
+ mfg=OSRAM_OS

* Valid for bin 'U5' with Vf(binning) = 2.62 V and If(binning) = 2.00 mA
* VERSION: 1
.MODEL KW_DELPS2.RA_x25y27_2mA_U5-mid D
+ IS=1.507557721415201e-28
+ N=1.761715699404042
+ RS=3.329067965420455
+ Tnom=25
+ EG=3.382813541262989
+ XTI=1.0000000000000000
+ TRS1=-0.0196983371669803
+ TRS2=0.0002423532875445194
+ mfg=OSRAM_OS

* Valid for bin 'U5' with Vf(binning) = 2.75 V and If(binning) = 2.00 mA
* VERSION: 1
.MODEL KW_DELPS2.RA_x25y27_2mA_U5-max D
+ IS=1.50755772141435e-28
+ N=1.761715699404026
+ RS=65.82906796542011
+ Tnom=25
+ EG=3.382813491784648
+ XTI=1.0000000000000000
+ TRS1=-0.0009961727128403642
+ TRS2=1.225614567866236e-05
+ mfg=OSRAM_OS

* Valid for Vf(binning) = 2.90 V and If(binning) = 10.0 mA
* VERSION: 7
.MODEL KW_DELPS2.RA_x33y33_typ D
+ IS=7.147336352036293e-29
+ N=1.755321362144429
+ RS=17.14308913778122
+ Tnom=25
+ EG=3.409215099275628
+ XTI=1.0000000000000153
+ TRS1=-0.003595085113724326
+ TRS2=4.342269726992692e-05
+ mfg=OSRAM_OS

* Valid for bin '55' with Vf(binning) = 2.95 V and If(binning) = 10.0 mA
* VERSION: 7
.MODEL KW_DELPS2.RA_x33y33_55-min D
+ IS=7.147336352048338e-29
+ N=1.755321362144482
+ RS=23.49192949983571
+ Tnom=25
+ EG=3.409215082537164
+ XTI=1.0000000000000000
+ TRS1=-0.002623491018648354
+ TRS2=3.168744405213411e-05
+ mfg=OSRAM_OS

* Valid for bin '55' with Vf(binning) = 3.08 V and If(binning) = 10.0 mA
* VERSION: 7
.MODEL KW_DELPS2.RA_x33y33_55-mid D
+ IS=7.14733635203302e-29
+ N=1.755321362144415
+ RS=35.99192949983616
+ Tnom=25
+ EG=3.409215099161548
+ XTI=1.0000000000000000
+ TRS1=-0.001712352496704818
+ TRS2=2.068239485154169e-05
+ mfg=OSRAM_OS

* Valid for bin '55' with Vf(binning) = 3.20 V and If(binning) = 10.0 mA
* VERSION: 7
.MODEL KW_DELPS2.RA_x33y33_55-max D
+ IS=7.147336352035709e-29
+ N=1.755321362144426
+ RS=48.49192949983617
+ Tnom=25
+ EG=3.409215085958922
+ XTI=1.0000000000000000
+ TRS1=-0.001270951349674213
+ TRS2=1.535099462044485e-05
+ mfg=OSRAM_OS

* Valid for bin 'Z5' with Vf(binning) = 2.83 V and If(binning) = 10.0 mA
* VERSION: 7
.MODEL KW_DELPS2.RA_x33y33_Z5-mid D
+ IS=7.147336352033838e-29
+ N=1.755321362144419
+ RS=10.99192949983619
+ Tnom=25
+ EG=3.409215098383834
+ XTI=1.0000000000000000
+ TRS1=-0.00560691990518998
+ TRS2=6.772234459440574e-05
+ mfg=OSRAM_OS

* Valid for bin 'Z5' with Vf(binning) = 2.95 V and If(binning) = 10.0 mA
* VERSION: 7
.MODEL KW_DELPS2.RA_x33y33_Z5-max D
+ IS=7.147336352048338e-29
+ N=1.755321362144482
+ RS=23.49192949983571
+ Tnom=25
+ EG=3.409215082537164
+ XTI=1.0000000000000000
+ TRS1=-0.002623491018648354
+ TRS2=3.168744405213411e-05
+ mfg=OSRAM_OS

* Valid for bin 'S4' with Vf(binning) = 2.60 V and If(binning) = 0.500 mA
* VERSION: 7
.MODEL KW_DELPS2.RA_x33y33_5.000000e-01mA_S4-max D
+ IS=1.137588718907639e-28
+ N=1.755321299520849
+ RS=81.96595860383943
+ Tnom=25
+ EG=3.388255124643815
+ XTI=1.0000000000000000
+ TRS1=-0.0007519079750143971
+ TRS2=9.081809080505485e-06
+ mfg=OSRAM_OS

* Valid for bin 'W5' with Vf(binning) = 2.60 V and If(binning) = 0.500 mA
* VERSION: 7
.MODEL KW_DELPS2.RA_x33y33_5.000000e-01mA_W5-min D
+ IS=1.137588718907639e-28
+ N=1.755321299520849
+ RS=81.96595860383943
+ Tnom=25
+ EG=3.388255124643815
+ XTI=1.0000000000000000
+ TRS1=-0.0007519079750143971
+ TRS2=9.081809080505485e-06
+ mfg=OSRAM_OS

* Valid for bin 'W5' with Vf(binning) = 2.73 V and If(binning) = 0.500 mA
* VERSION: 7
.MODEL KW_DELPS2.RA_x33y33_5.000000e-01mA_W5-mid D
+ IS=1.137588718907342e-28
+ N=1.755321299520842
+ RS=331.9659586038393
+ Tnom=25
+ EG=3.38825508879045
+ XTI=1.0000000000000000
+ TRS1=-0.000185654172449576
+ TRS2=2.242396254091682e-06
+ mfg=OSRAM_OS

* Valid for bin 'W5' with Vf(binning) = 2.85 V and If(binning) = 0.500 mA
* VERSION: 7
.MODEL KW_DELPS2.RA_x33y33_5.000000e-01mA_W5-max D
+ IS=1.137588718905955e-28
+ N=1.755321299520805
+ RS=581.9659586038395
+ Tnom=25
+ EG=3.38825509404114
+ XTI=1.0000000000000004
+ TRS1=-0.0001059011581892678
+ TRS2=1.279111309451139e-06
+ mfg=OSRAM_OS

* Valid for bin '15' with Vf(binning) = 2.75 V and If(binning) = 2.00 mA
* VERSION: 7
.MODEL KW_DELPS2.RA_x33y33_2mA_15-min D
+ IS=1.137588718907714e-28
+ N=1.755321299520853
+ RS=64.23144176482086
+ Tnom=25
+ EG=3.388255092257286
+ XTI=1.0000000000000000
+ TRS1=-0.0009595123438977027
+ TRS2=1.158932866560848e-05
+ mfg=OSRAM_OS

* Valid for bin '15' with Vf(binning) = 2.88 V and If(binning) = 2.00 mA
* VERSION: 7
.MODEL KW_DELPS2.RA_x33y33_2mA_15-mid D
+ IS=1.137588718907174e-28
+ N=1.755321299520837
+ RS=126.7314417648213
+ Tnom=25
+ EG=3.388255118221981
+ XTI=1.0000000000000000
+ TRS1=-0.0004863108489786151
+ TRS2=5.873833467758746e-06
+ mfg=OSRAM_OS

* Valid for bin '15' with Vf(binning) = 3.00 V and If(binning) = 2.00 mA
* VERSION: 7
.MODEL KW_DELPS2.RA_x33y33_2mA_15-max D
+ IS=1.137588718908421e-28
+ N=1.755321299520872
+ RS=189.2314417648209
+ Tnom=25
+ EG=3.388255087071718
+ XTI=1.0000000000000000
+ TRS1=-0.0003256904816758076
+ TRS2=3.933803501020841e-06
+ mfg=OSRAM_OS

* Valid for bin 'U5' with Vf(binning) = 2.62 V and If(binning) = 2.00 mA
* VERSION: 7
.MODEL KW_DELPS2.RA_x33y33_2mA_U5-mid D
+ IS=1.137588718906411e-28
+ N=1.755321299520817
+ RS=1.731441764821215
+ Tnom=25
+ EG=3.388255106294412
+ XTI=1.0000000000000213
+ TRS1=-0.03559511157344217
+ TRS2=0.0004299302628309236
+ mfg=OSRAM_OS

* Valid for bin 'U5' with Vf(binning) = 2.75 V and If(binning) = 2.00 mA
* VERSION: 7
.MODEL KW_DELPS2.RA_x33y33_2mA_U5-max D
+ IS=1.137588718907714e-28
+ N=1.755321299520853
+ RS=64.23144176482086
+ Tnom=25
+ EG=3.388255092257286
+ XTI=1.0000000000000000
+ TRS1=-0.0009595123438977027
+ TRS2=1.158932866560848e-05
+ mfg=OSRAM_OS

